<?xml version='1.0' encoding='utf-8'?>
<additional><tlLogic id="10691086259" type="actuated" programID="0" offset="0"><phase duration="35" state="GGGgrrrrGGGgrrrr" minDur="10" maxDur="50" /><phase duration="3" state="yyygrrrryyygrrrr" /><phase duration="35" state="rrrGGGGgrrrGGGGg" minDur="10" maxDur="50" /><phase duration="3" state="rrryyyygrrryyyyg" /><phase duration="2" state="rrrrrrrrrrrrrrrr" /></tlLogic><tlLogic id="10691086260" type="actuated" programID="0" offset="0"><phase duration="35" state="GGGgrrrrGGGgrrrr" minDur="10" maxDur="50" /><phase duration="3" state="yyygrrrryyygrrrr" /><phase duration="35" state="rrrGGGGgrrrGGGGg" minDur="10" maxDur="50" /><phase duration="3" state="rrryyyygrrryyyyg" /><phase duration="2" state="rrrrrrrrrrrrrrrr" /></tlLogic><tlLogic id="10691086262" type="actuated" programID="0" offset="0"><phase duration="35" state="GGGgrrrrGGGgrrrr" minDur="10" maxDur="50" /><phase duration="3" state="yyygrrrryyygrrrr" /><phase duration="35" state="rrrGGGGgrrrGGGGg" minDur="10" maxDur="50" /><phase duration="3" state="rrryyyygrrryyyyg" /><phase duration="2" state="rrrrrrrrrrrrrrrr" /></tlLogic><tlLogic id="10691086263" type="actuated" programID="0" offset="0"><phase duration="35" state="GGGgrrrrGGGgrrrr" minDur="10" maxDur="50" /><phase duration="3" state="yyygrrrryyygrrrr" /><phase duration="35" state="rrrGGGGgrrrGGGGg" minDur="10" maxDur="50" /><phase duration="3" state="rrryyyygrrryyyyg" /><phase duration="2" state="rrrrrrrrrrrrrrrr" /></tlLogic><tlLogic id="10691086265" type="actuated" programID="0" offset="0"><phase duration="35" state="GGGgrrrrGGGgrrrr" minDur="10" maxDur="50" /><phase duration="3" state="yyygrrrryyygrrrr" /><phase duration="35" state="rrrGGGGgrrrGGGGg" minDur="10" maxDur="50" /><phase duration="3" state="rrryyyygrrryyyyg" /><phase duration="2" state="rrrrrrrrrrrrrrrr" /></tlLogic><tlLogic id="10693951249" type="actuated" programID="0" offset="0"><phase duration="35" state="GGGgrrrrGGGgrrrr" minDur="10" maxDur="50" /><phase duration="3" state="yyygrrrryyygrrrr" /><phase duration="35" state="rrrGGGGgrrrGGGGg" minDur="10" maxDur="50" /><phase duration="3" state="rrryyyygrrryyyyg" /><phase duration="2" state="rrrrrrrrrrrrrrrr" /></tlLogic><tlLogic id="11507273100" type="actuated" programID="0" offset="0"><phase duration="35" state="GGGgrrrrGGGgrrrr" minDur="10" maxDur="50" /><phase duration="3" state="yyygrrrryyygrrrr" /><phase duration="35" state="rrrGGGGgrrrGGGGg" minDur="10" maxDur="50" /><phase duration="3" state="rrryyyygrrryyyyg" /><phase duration="2" state="rrrrrrrrrrrrrrrr" /></tlLogic><tlLogic id="11507273101" type="actuated" programID="0" offset="0"><phase duration="35" state="GGGgrrrrGGGgrrrr" minDur="10" maxDur="50" /><phase duration="3" state="yyygrrrryyygrrrr" /><phase duration="35" state="rrrGGGGgrrrGGGGg" minDur="10" maxDur="50" /><phase duration="3" state="rrryyyygrrryyyyg" /><phase duration="2" state="rrrrrrrrrrrrrrrr" /></tlLogic><tlLogic id="12181374925" type="actuated" programID="0" offset="0"><phase duration="35" state="GGGgrrrrGGGgrrrr" minDur="10" maxDur="50" /><phase duration="3" state="yyygrrrryyygrrrr" /><phase duration="35" state="rrrGGGGgrrrGGGGg" minDur="10" maxDur="50" /><phase duration="3" state="rrryyyygrrryyyyg" /><phase duration="2" state="rrrrrrrrrrrrrrrr" /></tlLogic><tlLogic id="12181374932" type="actuated" programID="0" offset="0"><phase duration="35" state="GGGgrrrrGGGgrrrr" minDur="10" maxDur="50" /><phase duration="3" state="yyygrrrryyygrrrr" /><phase duration="35" state="rrrGGGGgrrrGGGGg" minDur="10" maxDur="50" /><phase duration="3" state="rrryyyygrrryyyyg" /><phase duration="2" state="rrrrrrrrrrrrrrrr" /></tlLogic><tlLogic id="12181374941" type="actuated" programID="0" offset="0"><phase duration="35" state="GGGgrrrrGGGgrrrr" minDur="10" maxDur="50" /><phase duration="3" state="yyygrrrryyygrrrr" /><phase duration="35" state="rrrGGGGgrrrGGGGg" minDur="10" maxDur="50" /><phase duration="3" state="rrryyyygrrryyyyg" /><phase duration="2" state="rrrrrrrrrrrrrrrr" /></tlLogic><tlLogic id="12181374944" type="actuated" programID="0" offset="0"><phase duration="35" state="GGGgrrrrGGGgrrrr" minDur="10" maxDur="50" /><phase duration="3" state="yyygrrrryyygrrrr" /><phase duration="35" state="rrrGGGGgrrrGGGGg" minDur="10" maxDur="50" /><phase duration="3" state="rrryyyygrrryyyyg" /><phase duration="2" state="rrrrrrrrrrrrrrrr" /></tlLogic><tlLogic id="12463559806" type="actuated" programID="0" offset="0"><phase duration="35" state="GGGgrrrrGGGgrrrr" minDur="10" maxDur="50" /><phase duration="3" state="yyygrrrryyygrrrr" /><phase duration="35" state="rrrGGGGgrrrGGGGg" minDur="10" maxDur="50" /><phase duration="3" state="rrryyyygrrryyyyg" /><phase duration="2" state="rrrrrrrrrrrrrrrr" /></tlLogic><tlLogic id="12834723220" type="actuated" programID="0" offset="0"><phase duration="35" state="GGGgrrrrGGGgrrrr" minDur="10" maxDur="50" /><phase duration="3" state="yyygrrrryyygrrrr" /><phase duration="35" state="rrrGGGGgrrrGGGGg" minDur="10" maxDur="50" /><phase duration="3" state="rrryyyygrrryyyyg" /><phase duration="2" state="rrrrrrrrrrrrrrrr" /></tlLogic><tlLogic id="12834723227" type="actuated" programID="0" offset="0"><phase duration="35" state="GGGgrrrrGGGgrrrr" minDur="10" maxDur="50" /><phase duration="3" state="yyygrrrryyygrrrr" /><phase duration="35" state="rrrGGGGgrrrGGGGg" minDur="10" maxDur="50" /><phase duration="3" state="rrryyyygrrryyyyg" /><phase duration="2" state="rrrrrrrrrrrrrrrr" /></tlLogic><tlLogic id="12834723228" type="actuated" programID="0" offset="0"><phase duration="35" state="GGGgrrrrGGGgrrrr" minDur="10" maxDur="50" /><phase duration="3" state="yyygrrrryyygrrrr" /><phase duration="35" state="rrrGGGGgrrrGGGGg" minDur="10" maxDur="50" /><phase duration="3" state="rrryyyygrrryyyyg" /><phase duration="2" state="rrrrrrrrrrrrrrrr" /></tlLogic><tlLogic id="12834723232" type="actuated" programID="0" offset="0"><phase duration="35" state="GGGgrrrrGGGgrrrr" minDur="10" maxDur="50" /><phase duration="3" state="yyygrrrryyygrrrr" /><phase duration="35" state="rrrGGGGgrrrGGGGg" minDur="10" maxDur="50" /><phase duration="3" state="rrryyyygrrryyyyg" /><phase duration="2" state="rrrrrrrrrrrrrrrr" /></tlLogic><tlLogic id="12834723259" type="actuated" programID="0" offset="0"><phase duration="35" state="GGGgrrrrGGGgrrrr" minDur="10" maxDur="50" /><phase duration="3" state="yyygrrrryyygrrrr" /><phase duration="35" state="rrrGGGGgrrrGGGGg" minDur="10" maxDur="50" /><phase duration="3" state="rrryyyygrrryyyyg" /><phase duration="2" state="rrrrrrrrrrrrrrrr" /></tlLogic><tlLogic id="1815133244" type="actuated" programID="0" offset="0"><phase duration="35" state="GGGgrrrrGGGgrrrr" minDur="10" maxDur="50" /><phase duration="3" state="yyygrrrryyygrrrr" /><phase duration="35" state="rrrGGGGgrrrGGGGg" minDur="10" maxDur="50" /><phase duration="3" state="rrryyyygrrryyyyg" /><phase duration="2" state="rrrrrrrrrrrrrrrr" /></tlLogic><tlLogic id="2649092010" type="actuated" programID="0" offset="0"><phase duration="35" state="GGGgrrrrGGGgrrrr" minDur="10" maxDur="50" /><phase duration="3" state="yyygrrrryyygrrrr" /><phase duration="35" state="rrrGGGGgrrrGGGGg" minDur="10" maxDur="50" /><phase duration="3" state="rrryyyygrrryyyyg" /><phase duration="2" state="rrrrrrrrrrrrrrrr" /></tlLogic><tlLogic id="2711029280" type="actuated" programID="0" offset="0"><phase duration="35" state="GGGgrrrrGGGgrrrr" minDur="10" maxDur="50" /><phase duration="3" state="yyygrrrryyygrrrr" /><phase duration="35" state="rrrGGGGgrrrGGGGg" minDur="10" maxDur="50" /><phase duration="3" state="rrryyyygrrryyyyg" /><phase duration="2" state="rrrrrrrrrrrrrrrr" /></tlLogic><tlLogic id="42423564" type="actuated" programID="0" offset="0"><phase duration="35" state="GGGgrrrrGGGgrrrr" minDur="10" maxDur="50" /><phase duration="3" state="yyygrrrryyygrrrr" /><phase duration="35" state="rrrGGGGgrrrGGGGg" minDur="10" maxDur="50" /><phase duration="3" state="rrryyyygrrryyyyg" /><phase duration="2" state="rrrrrrrrrrrrrrrr" /></tlLogic><tlLogic id="42423565" type="actuated" programID="0" offset="0"><phase duration="35" state="GGGgrrrrGGGgrrrr" minDur="10" maxDur="50" /><phase duration="3" state="yyygrrrryyygrrrr" /><phase duration="35" state="rrrGGGGgrrrGGGGg" minDur="10" maxDur="50" /><phase duration="3" state="rrryyyygrrryyyyg" /><phase duration="2" state="rrrrrrrrrrrrrrrr" /></tlLogic><tlLogic id="42427762" type="actuated" programID="0" offset="0"><phase duration="35" state="GGGgrrrrGGGgrrrr" minDur="10" maxDur="50" /><phase duration="3" state="yyygrrrryyygrrrr" /><phase duration="35" state="rrrGGGGgrrrGGGGg" minDur="10" maxDur="50" /><phase duration="3" state="rrryyyygrrryyyyg" /><phase duration="2" state="rrrrrrrrrrrrrrrr" /></tlLogic><tlLogic id="42427764" type="actuated" programID="0" offset="0"><phase duration="35" state="GGGgrrrrGGGgrrrr" minDur="10" maxDur="50" /><phase duration="3" state="yyygrrrryyygrrrr" /><phase duration="35" state="rrrGGGGgrrrGGGGg" minDur="10" maxDur="50" /><phase duration="3" state="rrryyyygrrryyyyg" /><phase duration="2" state="rrrrrrrrrrrrrrrr" /></tlLogic><tlLogic id="42427786" type="actuated" programID="0" offset="0"><phase duration="35" state="GGGgrrrrGGGgrrrr" minDur="10" maxDur="50" /><phase duration="3" state="yyygrrrryyygrrrr" /><phase duration="35" state="rrrGGGGgrrrGGGGg" minDur="10" maxDur="50" /><phase duration="3" state="rrryyyygrrryyyyg" /><phase duration="2" state="rrrrrrrrrrrrrrrr" /></tlLogic><tlLogic id="42427787" type="actuated" programID="0" offset="0"><phase duration="35" state="GGGgrrrrGGGgrrrr" minDur="10" maxDur="50" /><phase duration="3" state="yyygrrrryyygrrrr" /><phase duration="35" state="rrrGGGGgrrrGGGGg" minDur="10" maxDur="50" /><phase duration="3" state="rrryyyygrrryyyyg" /><phase duration="2" state="rrrrrrrrrrrrrrrr" /></tlLogic><tlLogic id="42427797" type="actuated" programID="0" offset="0"><phase duration="35" state="GGGgrrrrGGGgrrrr" minDur="10" maxDur="50" /><phase duration="3" state="yyygrrrryyygrrrr" /><phase duration="35" state="rrrGGGGgrrrGGGGg" minDur="10" maxDur="50" /><phase duration="3" state="rrryyyygrrryyyyg" /><phase duration="2" state="rrrrrrrrrrrrrrrr" /></tlLogic><tlLogic id="42427805" type="actuated" programID="0" offset="0"><phase duration="35" state="GGGgrrrrGGGgrrrr" minDur="10" maxDur="50" /><phase duration="3" state="yyygrrrryyygrrrr" /><phase duration="35" state="rrrGGGGgrrrGGGGg" minDur="10" maxDur="50" /><phase duration="3" state="rrryyyygrrryyyyg" /><phase duration="2" state="rrrrrrrrrrrrrrrr" /></tlLogic><tlLogic id="42427812" type="actuated" programID="0" offset="0"><phase duration="35" state="GGGgrrrrGGGgrrrr" minDur="10" maxDur="50" /><phase duration="3" state="yyygrrrryyygrrrr" /><phase duration="35" state="rrrGGGGgrrrGGGGg" minDur="10" maxDur="50" /><phase duration="3" state="rrryyyygrrryyyyg" /><phase duration="2" state="rrrrrrrrrrrrrrrr" /></tlLogic><tlLogic id="42428227" type="actuated" programID="0" offset="0"><phase duration="35" state="GGGgrrrrGGGgrrrr" minDur="10" maxDur="50" /><phase duration="3" state="yyygrrrryyygrrrr" /><phase duration="35" state="rrrGGGGgrrrGGGGg" minDur="10" maxDur="50" /><phase duration="3" state="rrryyyygrrryyyyg" /><phase duration="2" state="rrrrrrrrrrrrrrrr" /></tlLogic><tlLogic id="42428232" type="actuated" programID="0" offset="0"><phase duration="35" state="GGGgrrrrGGGgrrrr" minDur="10" maxDur="50" /><phase duration="3" state="yyygrrrryyygrrrr" /><phase duration="35" state="rrrGGGGgrrrGGGGg" minDur="10" maxDur="50" /><phase duration="3" state="rrryyyygrrryyyyg" /><phase duration="2" state="rrrrrrrrrrrrrrrr" /></tlLogic><tlLogic id="42428253" type="actuated" programID="0" offset="0"><phase duration="35" state="GGGgrrrrGGGgrrrr" minDur="10" maxDur="50" /><phase duration="3" state="yyygrrrryyygrrrr" /><phase duration="35" state="rrrGGGGgrrrGGGGg" minDur="10" maxDur="50" /><phase duration="3" state="rrryyyygrrryyyyg" /><phase duration="2" state="rrrrrrrrrrrrrrrr" /></tlLogic><tlLogic id="42428258" type="actuated" programID="0" offset="0"><phase duration="35" state="GGGgrrrrGGGgrrrr" minDur="10" maxDur="50" /><phase duration="3" state="yyygrrrryyygrrrr" /><phase duration="35" state="rrrGGGGgrrrGGGGg" minDur="10" maxDur="50" /><phase duration="3" state="rrryyyygrrryyyyg" /><phase duration="2" state="rrrrrrrrrrrrrrrr" /></tlLogic><tlLogic id="42428264" type="actuated" programID="0" offset="0"><phase duration="35" state="GGGgrrrrGGGgrrrr" minDur="10" maxDur="50" /><phase duration="3" state="yyygrrrryyygrrrr" /><phase duration="35" state="rrrGGGGgrrrGGGGg" minDur="10" maxDur="50" /><phase duration="3" state="rrryyyygrrryyyyg" /><phase duration="2" state="rrrrrrrrrrrrrrrr" /></tlLogic><tlLogic id="42428268" type="actuated" programID="0" offset="0"><phase duration="35" state="GGGgrrrrGGGgrrrr" minDur="10" maxDur="50" /><phase duration="3" state="yyygrrrryyygrrrr" /><phase duration="35" state="rrrGGGGgrrrGGGGg" minDur="10" maxDur="50" /><phase duration="3" state="rrryyyygrrryyyyg" /><phase duration="2" state="rrrrrrrrrrrrrrrr" /></tlLogic><tlLogic id="42428277" type="actuated" programID="0" offset="0"><phase duration="35" state="GGGgrrrrGGGgrrrr" minDur="10" maxDur="50" /><phase duration="3" state="yyygrrrryyygrrrr" /><phase duration="35" state="rrrGGGGgrrrGGGGg" minDur="10" maxDur="50" /><phase duration="3" state="rrryyyygrrryyyyg" /><phase duration="2" state="rrrrrrrrrrrrrrrr" /></tlLogic><tlLogic id="42428283" type="actuated" programID="0" offset="0"><phase duration="35" state="GGGgrrrrGGGgrrrr" minDur="10" maxDur="50" /><phase duration="3" state="yyygrrrryyygrrrr" /><phase duration="35" state="rrrGGGGgrrrGGGGg" minDur="10" maxDur="50" /><phase duration="3" state="rrryyyygrrryyyyg" /><phase duration="2" state="rrrrrrrrrrrrrrrr" /></tlLogic><tlLogic id="42428287" type="actuated" programID="0" offset="0"><phase duration="35" state="GGGgrrrrGGGgrrrr" minDur="10" maxDur="50" /><phase duration="3" state="yyygrrrryyygrrrr" /><phase duration="35" state="rrrGGGGgrrrGGGGg" minDur="10" maxDur="50" /><phase duration="3" state="rrryyyygrrryyyyg" /><phase duration="2" state="rrrrrrrrrrrrrrrr" /></tlLogic><tlLogic id="42428303" type="actuated" programID="0" offset="0"><phase duration="35" state="GGGgrrrrGGGgrrrr" minDur="10" maxDur="50" /><phase duration="3" state="yyygrrrryyygrrrr" /><phase duration="35" state="rrrGGGGgrrrGGGGg" minDur="10" maxDur="50" /><phase duration="3" state="rrryyyygrrryyyyg" /><phase duration="2" state="rrrrrrrrrrrrrrrr" /></tlLogic><tlLogic id="42428305" type="actuated" programID="0" offset="0"><phase duration="35" state="GGGgrrrrGGGgrrrr" minDur="10" maxDur="50" /><phase duration="3" state="yyygrrrryyygrrrr" /><phase duration="35" state="rrrGGGGgrrrGGGGg" minDur="10" maxDur="50" /><phase duration="3" state="rrryyyygrrryyyyg" /><phase duration="2" state="rrrrrrrrrrrrrrrr" /></tlLogic><tlLogic id="42428307" type="actuated" programID="0" offset="0"><phase duration="35" state="GGGgrrrrGGGgrrrr" minDur="10" maxDur="50" /><phase duration="3" state="yyygrrrryyygrrrr" /><phase duration="35" state="rrrGGGGgrrrGGGGg" minDur="10" maxDur="50" /><phase duration="3" state="rrryyyygrrryyyyg" /><phase duration="2" state="rrrrrrrrrrrrrrrr" /></tlLogic><tlLogic id="42428310" type="actuated" programID="0" offset="0"><phase duration="35" state="GGGgrrrrGGGgrrrr" minDur="10" maxDur="50" /><phase duration="3" state="yyygrrrryyygrrrr" /><phase duration="35" state="rrrGGGGgrrrGGGGg" minDur="10" maxDur="50" /><phase duration="3" state="rrryyyygrrryyyyg" /><phase duration="2" state="rrrrrrrrrrrrrrrr" /></tlLogic><tlLogic id="42428312" type="actuated" programID="0" offset="0"><phase duration="35" state="GGGgrrrrGGGgrrrr" minDur="10" maxDur="50" /><phase duration="3" state="yyygrrrryyygrrrr" /><phase duration="35" state="rrrGGGGgrrrGGGGg" minDur="10" maxDur="50" /><phase duration="3" state="rrryyyygrrryyyyg" /><phase duration="2" state="rrrrrrrrrrrrrrrr" /></tlLogic><tlLogic id="42428313" type="actuated" programID="0" offset="0"><phase duration="35" state="GGGgrrrrGGGgrrrr" minDur="10" maxDur="50" /><phase duration="3" state="yyygrrrryyygrrrr" /><phase duration="35" state="rrrGGGGgrrrGGGGg" minDur="10" maxDur="50" /><phase duration="3" state="rrryyyygrrryyyyg" /><phase duration="2" state="rrrrrrrrrrrrrrrr" /></tlLogic><tlLogic id="42428315" type="actuated" programID="0" offset="0"><phase duration="35" state="GGGgrrrrGGGgrrrr" minDur="10" maxDur="50" /><phase duration="3" state="yyygrrrryyygrrrr" /><phase duration="35" state="rrrGGGGgrrrGGGGg" minDur="10" maxDur="50" /><phase duration="3" state="rrryyyygrrryyyyg" /><phase duration="2" state="rrrrrrrrrrrrrrrr" /></tlLogic><tlLogic id="42428321" type="actuated" programID="0" offset="0"><phase duration="35" state="GGGgrrrrGGGgrrrr" minDur="10" maxDur="50" /><phase duration="3" state="yyygrrrryyygrrrr" /><phase duration="35" state="rrrGGGGgrrrGGGGg" minDur="10" maxDur="50" /><phase duration="3" state="rrryyyygrrryyyyg" /><phase duration="2" state="rrrrrrrrrrrrrrrr" /></tlLogic><tlLogic id="42428328" type="actuated" programID="0" offset="0"><phase duration="35" state="GGGgrrrrGGGgrrrr" minDur="10" maxDur="50" /><phase duration="3" state="yyygrrrryyygrrrr" /><phase duration="35" state="rrrGGGGgrrrGGGGg" minDur="10" maxDur="50" /><phase duration="3" state="rrryyyygrrryyyyg" /><phase duration="2" state="rrrrrrrrrrrrrrrr" /></tlLogic><tlLogic id="42428329" type="actuated" programID="0" offset="0"><phase duration="35" state="GGGgrrrrGGGgrrrr" minDur="10" maxDur="50" /><phase duration="3" state="yyygrrrryyygrrrr" /><phase duration="35" state="rrrGGGGgrrrGGGGg" minDur="10" maxDur="50" /><phase duration="3" state="rrryyyygrrryyyyg" /><phase duration="2" state="rrrrrrrrrrrrrrrr" /></tlLogic><tlLogic id="42428332" type="actuated" programID="0" offset="0"><phase duration="35" state="GGGgrrrrGGGgrrrr" minDur="10" maxDur="50" /><phase duration="3" state="yyygrrrryyygrrrr" /><phase duration="35" state="rrrGGGGgrrrGGGGg" minDur="10" maxDur="50" /><phase duration="3" state="rrryyyygrrryyyyg" /><phase duration="2" state="rrrrrrrrrrrrrrrr" /></tlLogic><tlLogic id="42430288" type="actuated" programID="0" offset="0"><phase duration="35" state="GGGgrrrrGGGgrrrr" minDur="10" maxDur="50" /><phase duration="3" state="yyygrrrryyygrrrr" /><phase duration="35" state="rrrGGGGgrrrGGGGg" minDur="10" maxDur="50" /><phase duration="3" state="rrryyyygrrryyyyg" /><phase duration="2" state="rrrrrrrrrrrrrrrr" /></tlLogic><tlLogic id="42430292" type="actuated" programID="0" offset="0"><phase duration="35" state="GGGgrrrrGGGgrrrr" minDur="10" maxDur="50" /><phase duration="3" state="yyygrrrryyygrrrr" /><phase duration="35" state="rrrGGGGgrrrGGGGg" minDur="10" maxDur="50" /><phase duration="3" state="rrryyyygrrryyyyg" /><phase duration="2" state="rrrrrrrrrrrrrrrr" /></tlLogic><tlLogic id="42430298" type="actuated" programID="0" offset="0"><phase duration="35" state="GGGgrrrrGGGgrrrr" minDur="10" maxDur="50" /><phase duration="3" state="yyygrrrryyygrrrr" /><phase duration="35" state="rrrGGGGgrrrGGGGg" minDur="10" maxDur="50" /><phase duration="3" state="rrryyyygrrryyyyg" /><phase duration="2" state="rrrrrrrrrrrrrrrr" /></tlLogic><tlLogic id="42430304" type="actuated" programID="0" offset="0"><phase duration="35" state="GGGgrrrrGGGgrrrr" minDur="10" maxDur="50" /><phase duration="3" state="yyygrrrryyygrrrr" /><phase duration="35" state="rrrGGGGgrrrGGGGg" minDur="10" maxDur="50" /><phase duration="3" state="rrryyyygrrryyyyg" /><phase duration="2" state="rrrrrrrrrrrrrrrr" /></tlLogic><tlLogic id="42430311" type="actuated" programID="0" offset="0"><phase duration="35" state="GGGgrrrrGGGgrrrr" minDur="10" maxDur="50" /><phase duration="3" state="yyygrrrryyygrrrr" /><phase duration="35" state="rrrGGGGgrrrGGGGg" minDur="10" maxDur="50" /><phase duration="3" state="rrryyyygrrryyyyg" /><phase duration="2" state="rrrrrrrrrrrrrrrr" /></tlLogic><tlLogic id="42430314" type="actuated" programID="0" offset="0"><phase duration="35" state="GGGgrrrrGGGgrrrr" minDur="10" maxDur="50" /><phase duration="3" state="yyygrrrryyygrrrr" /><phase duration="35" state="rrrGGGGgrrrGGGGg" minDur="10" maxDur="50" /><phase duration="3" state="rrryyyygrrryyyyg" /><phase duration="2" state="rrrrrrrrrrrrrrrr" /></tlLogic><tlLogic id="42430317" type="actuated" programID="0" offset="0"><phase duration="35" state="GGGgrrrrGGGgrrrr" minDur="10" maxDur="50" /><phase duration="3" state="yyygrrrryyygrrrr" /><phase duration="35" state="rrrGGGGgrrrGGGGg" minDur="10" maxDur="50" /><phase duration="3" state="rrryyyygrrryyyyg" /><phase duration="2" state="rrrrrrrrrrrrrrrr" /></tlLogic><tlLogic id="42430320" type="actuated" programID="0" offset="0"><phase duration="35" state="GGGgrrrrGGGgrrrr" minDur="10" maxDur="50" /><phase duration="3" state="yyygrrrryyygrrrr" /><phase duration="35" state="rrrGGGGgrrrGGGGg" minDur="10" maxDur="50" /><phase duration="3" state="rrryyyygrrryyyyg" /><phase duration="2" state="rrrrrrrrrrrrrrrr" /></tlLogic><tlLogic id="42430324" type="actuated" programID="0" offset="0"><phase duration="35" state="GGGgrrrrGGGgrrrr" minDur="10" maxDur="50" /><phase duration="3" state="yyygrrrryyygrrrr" /><phase duration="35" state="rrrGGGGgrrrGGGGg" minDur="10" maxDur="50" /><phase duration="3" state="rrryyyygrrryyyyg" /><phase duration="2" state="rrrrrrrrrrrrrrrr" /></tlLogic><tlLogic id="42430338" type="actuated" programID="0" offset="0"><phase duration="35" state="GGGgrrrrGGGgrrrr" minDur="10" maxDur="50" /><phase duration="3" state="yyygrrrryyygrrrr" /><phase duration="35" state="rrrGGGGgrrrGGGGg" minDur="10" maxDur="50" /><phase duration="3" state="rrryyyygrrryyyyg" /><phase duration="2" state="rrrrrrrrrrrrrrrr" /></tlLogic><tlLogic id="42430342" type="actuated" programID="0" offset="0"><phase duration="35" state="GGGgrrrrGGGgrrrr" minDur="10" maxDur="50" /><phase duration="3" state="yyygrrrryyygrrrr" /><phase duration="35" state="rrrGGGGgrrrGGGGg" minDur="10" maxDur="50" /><phase duration="3" state="rrryyyygrrryyyyg" /><phase duration="2" state="rrrrrrrrrrrrrrrr" /></tlLogic><tlLogic id="42430344" type="actuated" programID="0" offset="0"><phase duration="35" state="GGGgrrrrGGGgrrrr" minDur="10" maxDur="50" /><phase duration="3" state="yyygrrrryyygrrrr" /><phase duration="35" state="rrrGGGGgrrrGGGGg" minDur="10" maxDur="50" /><phase duration="3" state="rrryyyygrrryyyyg" /><phase duration="2" state="rrrrrrrrrrrrrrrr" /></tlLogic><tlLogic id="42430347" type="actuated" programID="0" offset="0"><phase duration="35" state="GGGgrrrrGGGgrrrr" minDur="10" maxDur="50" /><phase duration="3" state="yyygrrrryyygrrrr" /><phase duration="35" state="rrrGGGGgrrrGGGGg" minDur="10" maxDur="50" /><phase duration="3" state="rrryyyygrrryyyyg" /><phase duration="2" state="rrrrrrrrrrrrrrrr" /></tlLogic><tlLogic id="42430350" type="actuated" programID="0" offset="0"><phase duration="35" state="GGGgrrrrGGGgrrrr" minDur="10" maxDur="50" /><phase duration="3" state="yyygrrrryyygrrrr" /><phase duration="35" state="rrrGGGGgrrrGGGGg" minDur="10" maxDur="50" /><phase duration="3" state="rrryyyygrrryyyyg" /><phase duration="2" state="rrrrrrrrrrrrrrrr" /></tlLogic><tlLogic id="42430352" type="actuated" programID="0" offset="0"><phase duration="35" state="GGGgrrrrGGGgrrrr" minDur="10" maxDur="50" /><phase duration="3" state="yyygrrrryyygrrrr" /><phase duration="35" state="rrrGGGGgrrrGGGGg" minDur="10" maxDur="50" /><phase duration="3" state="rrryyyygrrryyyyg" /><phase duration="2" state="rrrrrrrrrrrrrrrr" /></tlLogic><tlLogic id="42430356" type="actuated" programID="0" offset="0"><phase duration="35" state="GGGgrrrrGGGgrrrr" minDur="10" maxDur="50" /><phase duration="3" state="yyygrrrryyygrrrr" /><phase duration="35" state="rrrGGGGgrrrGGGGg" minDur="10" maxDur="50" /><phase duration="3" state="rrryyyygrrryyyyg" /><phase duration="2" state="rrrrrrrrrrrrrrrr" /></tlLogic><tlLogic id="42430358" type="actuated" programID="0" offset="0"><phase duration="35" state="GGGgrrrrGGGgrrrr" minDur="10" maxDur="50" /><phase duration="3" state="yyygrrrryyygrrrr" /><phase duration="35" state="rrrGGGGgrrrGGGGg" minDur="10" maxDur="50" /><phase duration="3" state="rrryyyygrrryyyyg" /><phase duration="2" state="rrrrrrrrrrrrrrrr" /></tlLogic><tlLogic id="42430363" type="actuated" programID="0" offset="0"><phase duration="35" state="GGGgrrrrGGGgrrrr" minDur="10" maxDur="50" /><phase duration="3" state="yyygrrrryyygrrrr" /><phase duration="35" state="rrrGGGGgrrrGGGGg" minDur="10" maxDur="50" /><phase duration="3" state="rrryyyygrrryyyyg" /><phase duration="2" state="rrrrrrrrrrrrrrrr" /></tlLogic><tlLogic id="42430367" type="actuated" programID="0" offset="0"><phase duration="35" state="GGGgrrrrGGGgrrrr" minDur="10" maxDur="50" /><phase duration="3" state="yyygrrrryyygrrrr" /><phase duration="35" state="rrrGGGGgrrrGGGGg" minDur="10" maxDur="50" /><phase duration="3" state="rrryyyygrrryyyyg" /><phase duration="2" state="rrrrrrrrrrrrrrrr" /></tlLogic><tlLogic id="42430371" type="actuated" programID="0" offset="0"><phase duration="35" state="GGGgrrrrGGGgrrrr" minDur="10" maxDur="50" /><phase duration="3" state="yyygrrrryyygrrrr" /><phase duration="35" state="rrrGGGGgrrrGGGGg" minDur="10" maxDur="50" /><phase duration="3" state="rrryyyygrrryyyyg" /><phase duration="2" state="rrrrrrrrrrrrrrrr" /></tlLogic><tlLogic id="42430375" type="actuated" programID="0" offset="0"><phase duration="35" state="GGGgrrrrGGGgrrrr" minDur="10" maxDur="50" /><phase duration="3" state="yyygrrrryyygrrrr" /><phase duration="35" state="rrrGGGGgrrrGGGGg" minDur="10" maxDur="50" /><phase duration="3" state="rrryyyygrrryyyyg" /><phase duration="2" state="rrrrrrrrrrrrrrrr" /></tlLogic><tlLogic id="42430378" type="actuated" programID="0" offset="0"><phase duration="35" state="GGGgrrrrGGGgrrrr" minDur="10" maxDur="50" /><phase duration="3" state="yyygrrrryyygrrrr" /><phase duration="35" state="rrrGGGGgrrrGGGGg" minDur="10" maxDur="50" /><phase duration="3" state="rrryyyygrrryyyyg" /><phase duration="2" state="rrrrrrrrrrrrrrrr" /></tlLogic><tlLogic id="42430384" type="actuated" programID="0" offset="0"><phase duration="35" state="GGGgrrrrGGGgrrrr" minDur="10" maxDur="50" /><phase duration="3" state="yyygrrrryyygrrrr" /><phase duration="35" state="rrrGGGGgrrrGGGGg" minDur="10" maxDur="50" /><phase duration="3" state="rrryyyygrrryyyyg" /><phase duration="2" state="rrrrrrrrrrrrrrrr" /></tlLogic><tlLogic id="42430390" type="actuated" programID="0" offset="0"><phase duration="35" state="GGGgrrrrGGGgrrrr" minDur="10" maxDur="50" /><phase duration="3" state="yyygrrrryyygrrrr" /><phase duration="35" state="rrrGGGGgrrrGGGGg" minDur="10" maxDur="50" /><phase duration="3" state="rrryyyygrrryyyyg" /><phase duration="2" state="rrrrrrrrrrrrrrrr" /></tlLogic><tlLogic id="42430394" type="actuated" programID="0" offset="0"><phase duration="35" state="GGGgrrrrGGGgrrrr" minDur="10" maxDur="50" /><phase duration="3" state="yyygrrrryyygrrrr" /><phase duration="35" state="rrrGGGGgrrrGGGGg" minDur="10" maxDur="50" /><phase duration="3" state="rrryyyygrrryyyyg" /><phase duration="2" state="rrrrrrrrrrrrrrrr" /></tlLogic><tlLogic id="42430685" type="actuated" programID="0" offset="0"><phase duration="35" state="GGGgrrrrGGGgrrrr" minDur="10" maxDur="50" /><phase duration="3" state="yyygrrrryyygrrrr" /><phase duration="35" state="rrrGGGGgrrrGGGGg" minDur="10" maxDur="50" /><phase duration="3" state="rrryyyygrrryyyyg" /><phase duration="2" state="rrrrrrrrrrrrrrrr" /></tlLogic><tlLogic id="42430688" type="actuated" programID="0" offset="0"><phase duration="35" state="GGGgrrrrGGGgrrrr" minDur="10" maxDur="50" /><phase duration="3" state="yyygrrrryyygrrrr" /><phase duration="35" state="rrrGGGGgrrrGGGGg" minDur="10" maxDur="50" /><phase duration="3" state="rrryyyygrrryyyyg" /><phase duration="2" state="rrrrrrrrrrrrrrrr" /></tlLogic><tlLogic id="42430691" type="actuated" programID="0" offset="0"><phase duration="35" state="GGGgrrrrGGGgrrrr" minDur="10" maxDur="50" /><phase duration="3" state="yyygrrrryyygrrrr" /><phase duration="35" state="rrrGGGGgrrrGGGGg" minDur="10" maxDur="50" /><phase duration="3" state="rrryyyygrrryyyyg" /><phase duration="2" state="rrrrrrrrrrrrrrrr" /></tlLogic><tlLogic id="42430694" type="actuated" programID="0" offset="0"><phase duration="35" state="GGGgrrrrGGGgrrrr" minDur="10" maxDur="50" /><phase duration="3" state="yyygrrrryyygrrrr" /><phase duration="35" state="rrrGGGGgrrrGGGGg" minDur="10" maxDur="50" /><phase duration="3" state="rrryyyygrrryyyyg" /><phase duration="2" state="rrrrrrrrrrrrrrrr" /></tlLogic><tlLogic id="42430698" type="actuated" programID="0" offset="0"><phase duration="35" state="GGGgrrrrGGGgrrrr" minDur="10" maxDur="50" /><phase duration="3" state="yyygrrrryyygrrrr" /><phase duration="35" state="rrrGGGGgrrrGGGGg" minDur="10" maxDur="50" /><phase duration="3" state="rrryyyygrrryyyyg" /><phase duration="2" state="rrrrrrrrrrrrrrrr" /></tlLogic><tlLogic id="42430704" type="actuated" programID="0" offset="0"><phase duration="35" state="GGGgrrrrGGGgrrrr" minDur="10" maxDur="50" /><phase duration="3" state="yyygrrrryyygrrrr" /><phase duration="35" state="rrrGGGGgrrrGGGGg" minDur="10" maxDur="50" /><phase duration="3" state="rrryyyygrrryyyyg" /><phase duration="2" state="rrrrrrrrrrrrrrrr" /></tlLogic><tlLogic id="42430707" type="actuated" programID="0" offset="0"><phase duration="35" state="GGGgrrrrGGGgrrrr" minDur="10" maxDur="50" /><phase duration="3" state="yyygrrrryyygrrrr" /><phase duration="35" state="rrrGGGGgrrrGGGGg" minDur="10" maxDur="50" /><phase duration="3" state="rrryyyygrrryyyyg" /><phase duration="2" state="rrrrrrrrrrrrrrrr" /></tlLogic><tlLogic id="42430713" type="actuated" programID="0" offset="0"><phase duration="35" state="GGGgrrrrGGGgrrrr" minDur="10" maxDur="50" /><phase duration="3" state="yyygrrrryyygrrrr" /><phase duration="35" state="rrrGGGGgrrrGGGGg" minDur="10" maxDur="50" /><phase duration="3" state="rrryyyygrrryyyyg" /><phase duration="2" state="rrrrrrrrrrrrrrrr" /></tlLogic><tlLogic id="42430722" type="actuated" programID="0" offset="0"><phase duration="35" state="