<?xml version="1.0" ?>
<additional>
    <chargingStation id="cs_times_square" lane="edge_near_cs_times_square_0" startPos="10" endPos="110" power="150000" efficiency="0.95">
        <param key="color" value="0,1,0"/>
        <param key="capacity" value="50"/>
    </chargingStation>
    <chargingStation id="cs_penn_station" lane="edge_near_cs_penn_station_0" startPos="10" endPos="90" power="150000" efficiency="0.95">
        <param key="color" value="0,1,0"/>
        <param key="capacity" value="40"/>
    </chargingStation>
    <chargingStation id="cs_grand_central" lane="edge_near_cs_grand_central_0" startPos="10" endPos="130" power="150000" efficiency="0.95">
        <param key="color" value="0,1,0"/>
        <param key="capacity" value="60"/>
    </chargingStation>
    <chargingStation id="cs_bryant_park" lane="edge_near_cs_bryant_park_0" startPos="10" endPos="70" power="150000" efficiency="0.95">
        <param key="color" value="0,1,0"/>
        <param key="capacity" value="30"/>
    </chargingStation>
    <chargingStation id="cs_columbus_circle" lane="edge_near_cs_columbus_circle_0" startPos="10" endPos="80" power="150000" efficiency="0.95">
        <param key="color" value="0,1,0"/>
        <param key="capacity" value="35"/>
    </chargingStation>
    <chargingStation id="cs_murray_hill" lane="edge_near_cs_murray_hill_0" startPos="10" endPos="60" power="150000" efficiency="0.95">
        <param key="color" value="0,1,0"/>
        <param key="capacity" value="25"/>
    </chargingStation>
    <chargingStation id="cs_turtle_bay" lane="edge_near_cs_turtle_bay_0" startPos="10" endPos="50" power="150000" efficiency="0.95">
        <param key="color" value="0,1,0"/>
        <param key="capacity" value="20"/>
    </chargingStation>
    <chargingStation id="cs_midtown_east" lane="edge_near_cs_midtown_east_0" startPos="10" endPos="70" power="150000" efficiency="0.95">
        <param key="color" value="0,1,0"/>
        <param key="capacity" value="30"/>
    </chargingStation>
</additional>
