<?xml version="1.0" ?>
<additional>
    <vType id="tesla_model3" vClass="passenger" length="4.69" width="2.1" height="1.44" color="0.8,0.1,0.1" maxSpeed="16.67" accel="2.6" decel="4.5">
        <param key="has.battery.device" value="true"/>
        <param key="battery.capacity" value="75000"/>
        <param key="battery.actualCharge" value="57403.12465170156"/>
        <param key="battery.vehicleMass" value="1800"/>
        <param key="battery.maximumPower" value="150000"/>
        <param key="device.battery.chargingStationId" value=""/>
        <param key="device.battery.chargeInTransit" value="false"/>
    </vType>
    <vType id="tesla_modely" vClass="passenger" length="4.75" width="2.2" height="1.62" color="0.9,0.9,0.9" maxSpeed="16.67" accel="3.5" decel="4.5">
        <param key="has.battery.device" value="true"/>
        <param key="battery.capacity" value="82000"/>
        <param key="battery.actualCharge" value="71327.50580456351"/>
        <param key="battery.vehicleMass" value="1800"/>
        <param key="battery.maximumPower" value="150000"/>
        <param key="device.battery.chargingStationId" value=""/>
        <param key="device.battery.chargeInTransit" value="false"/>
    </vType>
    <vType id="yellow_cab" vClass="taxi" length="4.8" width="1.9" height="1.5" color="1,0.9,0" maxSpeed="16.67" accel="2.0" decel="4.0"/>
    <vType id="uber_black" vClass="passenger" length="5.0" width="2.0" height="1.5" color="0.1,0.1,0.1" maxSpeed="16.67" accel="2.2" decel="4.2"/>
    <vType id="nypd_cruiser" vClass="emergency" length="4.9" width="2.0" height="1.5" color="0,0,1" maxSpeed="22.22" accel="3.0" decel="5.0"/>
    <vType id="fdny_truck" vClass="emergency" length="10.0" width="2.5" height="3.5" color="1,0,0" maxSpeed="19.44" accel="1.5" decel="3.5"/>
    <vType id="ups_truck" vClass="delivery" length="7.0" width="2.4" height="3.0" color="0.4,0.2,0" maxSpeed="13.89" accel="1.2" decel="3.0"/>
    <vType id="mta_bus" vClass="bus" length="12.0" width="2.5" height="3.2" color="0,0.3,0.8" maxSpeed="11.11" accel="1.0" decel="3.0"/>
    <vType id="nissan_leaf" vClass="passenger" length="4.48" width="1.79" height="1.55" color="0,0.6,0.3" maxSpeed="16.67" accel="2.2" decel="4.3">
        <param key="has.battery.device" value="true"/>
        <param key="battery.capacity" value="40000"/>
        <param key="battery.actualCharge" value="30286.65899035712"/>
        <param key="battery.vehicleMass" value="1800"/>
        <param key="battery.maximumPower" value="150000"/>
        <param key="device.battery.chargingStationId" value=""/>
        <param key="device.battery.chargeInTransit" value="false"/>
    </vType>
    <vType id="rivian_truck" vClass="passenger" length="5.5" width="2.1" height="1.8" color="0.2,0.4,0.2" maxSpeed="16.67" accel="3.0" decel="4.0">
        <param key="has.battery.device" value="true"/>
        <param key="battery.capacity" value="135000"/>
        <param key="battery.actualCharge" value="82108.91369251802"/>
        <param key="battery.vehicleMass" value="1800"/>
        <param key="battery.maximumPower" value="150000"/>
        <param key="device.battery.chargingStationId" value=""/>
        <param key="device.battery.chargeInTransit" value="false"/>
    </vType>
</additional>
