<?xml version="1.0" ?>
<routes>
    <vehicle id="veh_0" type="yellow_cab" depart="0" from="penn_station" to="times_square"/>
    <vehicle id="veh_1" type="yellow_cab" depart="5.0" from="bryant_park" to="herald_square"/>
    <vehicle id="veh_2" type="tesla_modely" depart="10.0" from="columbus_circle" to="times_square">
        <param key="device.battery.chargingStrategy" value="opportunistic"/>
        <param key="device.battery.minCharge" value="10000"/>
    </vehicle>
    <vehicle id="veh_3" type="tesla_modely" depart="15.0" from="madison_square" to="bryant_park">
        <param key="device.battery.chargingStrategy" value="opportunistic"/>
        <param key="device.battery.minCharge" value="10000"/>
    </vehicle>
    <vehicle id="veh_4" type="yellow_cab" depart="20.0" from="penn_station" to="herald_square"/>
    <vehicle id="veh_5" type="ups_truck" depart="25.0" from="bryant_park" to="grand_central"/>
    <vehicle id="veh_6" type="fdny_truck" depart="30.0" from="times_square" to="penn_station"/>
    <vehicle id="veh_7" type="mta_bus" depart="35.0" from="penn_station" to="grand_central"/>
    <vehicle id="veh_8" type="yellow_cab" depart="40.0" from="bryant_park" to="columbus_circle"/>
    <vehicle id="veh_9" type="tesla_model3" depart="45.0" from="bryant_park" to="herald_square">
        <param key="device.battery.chargingStrategy" value="opportunistic"/>
        <param key="device.battery.minCharge" value="10000"/>
    </vehicle>
    <vehicle id="veh_10" type="tesla_model3" depart="50.0" from="times_square" to="penn_station">
        <param key="device.battery.chargingStrategy" value="opportunistic"/>
        <param key="device.battery.minCharge" value="10000"/>
    </vehicle>
    <vehicle id="veh_11" type="tesla_model3" depart="55.0" from="bryant_park" to="grand_central">
        <param key="device.battery.chargingStrategy" value="opportunistic"/>
        <param key="device.battery.minCharge" value="10000"/>
    </vehicle>
    <vehicle id="veh_12" type="tesla_modely" depart="60.0" from="rockefeller" to="madison_square">
        <param key="device.battery.chargingStrategy" value="opportunistic"/>
        <param key="device.battery.minCharge" value="10000"/>
    </vehicle>
    <vehicle id="veh_13" type="yellow_cab" depart="65.0" from="grand_central" to="herald_square"/>
    <vehicle id="veh_14" type="tesla_model3" depart="70.0" from="grand_central" to="madison_square">
        <param key="device.battery.chargingStrategy" value="opportunistic"/>
        <param key="device.battery.minCharge" value="10000"/>
    </vehicle>
    <vehicle id="veh_15" type="tesla_model3" depart="75.0" from="madison_square" to="columbus_circle">
        <param key="device.battery.chargingStrategy" value="opportunistic"/>
        <param key="device.battery.minCharge" value="10000"/>
    </vehicle>
    <vehicle id="veh_16" type="tesla_model3" depart="80.0" from="madison_square" to="columbus_circle">
        <param key="device.battery.chargingStrategy" value="opportunistic"/>
        <param key="device.battery.minCharge" value="10000"/>
    </vehicle>
    <vehicle id="veh_17" type="yellow_cab" depart="85.0" from="grand_central" to="herald_square"/>
    <vehicle id="veh_18" type="tesla_model3" depart="90.0" from="times_square" to="herald_square">
        <param key="device.battery.chargingStrategy" value="opportunistic"/>
        <param key="device.battery.minCharge" value="10000"/>
    </vehicle>
    <vehicle id="veh_19" type="yellow_cab" depart="95.0" from="columbus_circle" to="penn_station"/>
    <vehicle id="veh_20" type="yellow_cab" depart="100.0" from="bryant_park" to="madison_square"/>
    <vehicle id="veh_21" type="tesla_model3" depart="105.0" from="bryant_park" to="rockefeller">
        <param key="device.battery.chargingStrategy" value="opportunistic"/>
        <param key="device.battery.minCharge" value="10000"/>
    </vehicle>
    <vehicle id="veh_22" type="uber_black" depart="110.0" from="times_square" to="madison_square"/>
    <vehicle id="veh_23" type="uber_black" depart="115.0" from="madison_square" to="times_square"/>
    <vehicle id="veh_24" type="uber_black" depart="120.0" from="madison_square" to="rockefeller"/>
    <vehicle id="veh_25" type="tesla_model3" depart="125.0" from="times_square" to="columbus_circle">
        <param key="device.battery.chargingStrategy" value="opportunistic"/>
        <param key="device.battery.minCharge" value="10000"/>
    </vehicle>
    <vehicle id="veh_26" type="yellow_cab" depart="130.0" from="columbus_circle" to="times_square"/>
    <vehicle id="veh_27" type="nissan_leaf" depart="135.0" from="columbus_circle" to="penn_station">
        <param key="device.battery.chargingStrategy" value="opportunistic"/>
        <param key="device.battery.minCharge" value="10000"/>
    </vehicle>
    <vehicle id="veh_28" type="uber_black" depart="140.0" from="columbus_circle" to="times_square"/>
    <vehicle id="veh_29" type="ups_truck" depart="145.0" from="rockefeller" to="columbus_circle"/>
    <vehicle id="veh_30" type="nissan_leaf" depart="150.0" from="bryant_park" to="herald_square">
        <param key="device.battery.chargingStrategy" value="opportunistic"/>
        <param key="device.battery.minCharge" value="10000"/>
    </vehicle>
    <vehicle id="veh_31" type="tesla_model3" depart="155.0" from="penn_station" to="rockefeller">
        <param key="device.battery.chargingStrategy" value="opportunistic"/>
        <param key="device.battery.minCharge" value="10000"/>
    </vehicle>
    <vehicle id="veh_32" type="yellow_cab" depart="160.0" from="bryant_park" to="columbus_circle"/>
    <vehicle id="veh_33" type="mta_bus" depart="165.0" from="penn_station" to="grand_central"/>
    <vehicle id="veh_34" type="ups_truck" depart="170.0" from="columbus_circle" to="times_square"/>
    <vehicle id="veh_35" type="uber_black" depart="175.0" from="rockefeller" to="times_square"/>
    <vehicle id="veh_36" type="tesla_modely" depart="180.0" from="rockefeller" to="times_square">
        <param key="device.battery.chargingStrategy" value="opportunistic"/>
        <param key="device.battery.minCharge" value="10000"/>
    </vehicle>
    <vehicle id="veh_37" type="mta_bus" depart="185.0" from="penn_station" to="grand_central"/>
    <vehicle id="veh_38" type="uber_black" depart="190.0" from="madison_square" to="bryant_park"/>
    <vehicle id="veh_39" type="tesla_model3" depart="195.0" from="herald_square" to="columbus_circle">
        <param key="device.battery.chargingStrategy" value="opportunistic"/>
        <param key="device.battery.minCharge" value="10000"/>
    </vehicle>
    <vehicle id="veh_40" type="yellow_cab" depart="200.0" from="bryant_park" to="herald_square"/>
    <vehicle id="veh_41" type="nissan_leaf" depart="205.0" from="herald_square" to="rockefeller">
        <param key="device.battery.chargingStrategy" value="opportunistic"/>
        <param key="device.battery.minCharge" value="10000"/>
    </vehicle>
    <vehicle id="veh_42" type="ups_truck" depart="210.0" from="rockefeller" to="bryant_park"/>
    <vehicle id="veh_43" type="yellow_cab" depart="215.0" from="grand_central" to="herald_square"/>
    <vehicle id="veh_44" type="tesla_modely" depart="220.0" from="grand_central" to="times_square">
        <param key="device.battery.chargingStrategy" value="opportunistic"/>
        <param key="device.battery.minCharge" value="10000"/>
    </vehicle>
    <vehicle id="veh_45" type="tesla_model3" depart="225.0" from="rockefeller" to="grand_central">
        <param key="device.battery.chargingStrategy" value="opportunistic"/>
        <param key="device.battery.minCharge" value="10000"/>
    </vehicle>
    <vehicle id="veh_46" type="uber_black" depart="230.0" from="penn_station" to="rockefeller"/>
    <vehicle id="veh_47" type="yellow_cab" depart="235.0" from="bryant_park" to="columbus_circle"/>
    <vehicle id="veh_48" type="nissan_leaf" depart="240.0" from="herald_square" to="grand_central">
        <param key="device.battery.chargingStrategy" value="opportunistic"/>
        <param key="device.battery.minCharge" value="10000"/>
    </vehicle>
    <vehicle id="veh_49" type="yellow_cab" depart="245.0" from="columbus_circle" to="bryant_park"/>
    <vehicle id="veh_50" type="uber_black" depart="250.0" from="bryant_park" to="herald_square"/>
    <vehicle id="veh_51" type="mta_bus" depart="255.0" from="penn_station" to="grand_central"/>
    <vehicle id="veh_52" type="yellow_cab" depart="260.0" from="grand_central" to="bryant_park"/>
    <vehicle id="veh_53" type="yellow_cab" depart="265.0" from="bryant_park" to="penn_station"/>
    <vehicle id="veh_54" type="ups_truck" depart="270.0" from="madison_square" to="bryant_park"/>
    <vehicle id="veh_55" type="tesla_modely" depart="275.0" from="rockefeller" to="herald_square">
        <param key="device.battery.chargingStrategy" value="opportunistic"/>
        <param key="device.battery.minCharge" value="10000"/>
    </vehicle>
    <vehicle id="veh_56" type="tesla_model3" depart="280.0" from="penn_station" to="herald_square">
        <param key="device.battery.chargingStrategy" value="opportunistic"/>
        <param key="device.battery.minCharge" value="10000"/>
    </vehicle>
    <vehicle id="veh_57" type="rivian_truck" depart="285.0" from="madison_square" to="rockefeller">
        <param key="device.battery.chargingStrategy" value="opportunistic"/>
        <param key="device.battery.minCharge" value="10000"/>
    </vehicle>
    <vehicle id="veh_58" type="tesla_modely" depart="290.0" from="columbus_circle" to="grand_central">
        <param key="device.battery.chargingStrategy" value="opportunistic"/>
        <param key="device.battery.minCharge" value="10000"/>
    </vehicle>
    <vehicle id="veh_59" type="yellow_cab" depart="295.0" from="bryant_park" to="grand_central"/>
    <vehicle id="veh_60" type="nissan_leaf" depart="300.0" from="penn_station" to="bryant_park">
        <param key="device.battery.chargingStrategy" value="opportunistic"/>
        <param key="device.battery.minCharge" value="10000"/>
    </vehicle>
    <vehicle id="veh_61" type="yellow_cab" depart="305.0" from="penn_station" to="grand_central"/>
    <vehicle id="veh_62" type="uber_black" depart="310.0" from="columbus_circle" to="penn_station"/>
    <vehicle id="veh_63" type="uber_black" depart="315.0" from="madison_square" to="herald_square"/>
    <vehicle id="veh_64" type="nissan_leaf" depart="320.0" from="grand_central" to="penn_station">
        <param key="device.battery.chargingStrategy" value="opportunistic"/>
        <param key="device.battery.minCharge" value="10000"/>
    </vehicle>
    <vehicle id="veh_65" type="ups_truck" depart="325.0" from="penn_station" to="herald_square"/>
    <vehicle id="veh_66" type="uber_black" depart="330.0" from="bryant_park" to="herald_square"/>
    <vehicle id="veh_67" type="tesla_modely" depart="335.0" from="columbus_circle" to="rockefeller">
        <param key="device.battery.chargingStrategy" value="opportunistic"/>
        <param key="device.battery.minCharge" value="10000"/>
    </vehicle>
    <vehicle id="veh_68" type="yellow_cab" depart="340.0" from="madison_square" to="columbus_circle"/>
    <vehicle id="veh_69" type="uber_black" depart="345.0" from="rockefeller" to="bryant_park"/>
    <vehicle id="veh_70" type="rivian_truck" depart="350.0" from="times_square" to="madison_square">
        <param key="device.battery.chargingStrategy" value="opportunistic"/>
        <param key="device.battery.minCharge" value="10000"/>
    </vehicle>
    <vehicle id="veh_71" type="tesla_modely" depart="355.0" from="penn_station" to="herald_square">
        <param key="device.battery.chargingStrategy" value="opportunistic"/>
        <param key="device.battery.minCharge" value="10000"/>
    </vehicle>
    <vehicle id="veh_72" type="uber_black" depart="360.0" from="columbus_circle" to="madison_square"/>
    <vehicle id="veh_73" type="yellow_cab" depart="365.0" from="rockefeller" to="times_square"/>
    <vehicle id="veh_74" type="yellow_cab" depart="370.0" from="madison_square" to="columbus_circle"/>
    <vehicle id="veh_75" type="yellow_cab" depart="375.0" from="madison_square" to="columbus_circle"/>
    <vehicle id="veh_76" type="tesla_model3" depart="380.0" from="times_square" to="columbus_circle">
        <param key="device.battery.chargingStrategy" value="opportunistic"/>
        <param key="device.battery.minCharge" value="10000"/>
    </vehicle>
    <vehicle id="veh_77" type="tesla_model3" depart="385.0" from="penn_station" to="rockefeller">
        <param key="device.battery.chargingStrategy" value="opportunistic"/>
        <param key="device.battery.minCharge" value="10000"/>
    </vehicle>
    <vehicle id="veh_78" type="rivian_truck" depart="390.0" from="bryant_park" to="columbus_circle">
        <param key="device.battery.chargingStrategy" value="opportunistic"/>
        <param key="device.battery.minCharge" value="10000"/>
    </vehicle>
    <vehicle id="veh_79" type="mta_bus" depart="395.0" from="penn_station" to="grand_central"/>
    <vehicle id="veh_80" type="uber_black" depart="400.0" from="grand_central" to="madison_square"/>
    <vehicle id="veh_81" type="yellow_cab" depart="405.0" from="madison_square" to="bryant_park"/>
    <vehicle id="veh_82" type="uber_black" depart="410.0" from="penn_station" to="times_square"/>
    <vehicle id="veh_83" type="yellow_cab" depart="415.0" from="bryant_park" to="madison_square"/>
    <vehicle id="veh_84" type="tesla_model3" depart="420.0" from="rockefeller" to="herald_square">
        <param key="device.battery.chargingStrategy" value="opportunistic"/>
        <param key="device.battery.minCharge" value="10000"/>
    </vehicle>
    <vehicle id="veh_85" type="yellow_cab" depart="425.0" from="madison_square" to="times_square"/>
    <vehicle id="veh_86" type="tesla_model3" depart="430.0" from="herald_square" to="bryant_park">
        <param key="device.battery.chargingStrategy" value="opportunistic"/>
        <param key="device.battery.minCharge" value="10000"/>
    </vehicle>
    <vehicle id="veh_87" type="tesla_model3" depart="435.0" from="madison_square" to="rockefeller">
        <param key="device.battery.chargingStrategy" value="opportunistic"/>
        <param key="device.battery.minCharge" value="10000"/>
    </vehicle>
    <vehicle id="veh_88" type="uber_black" depart="440.0" from="herald_square" to="madison_square"/>
    <vehicle id="veh_89" type="tesla_model3" depart="445.0" from="columbus_circle" to="rockefeller">
        <param key="device.battery.chargingStrategy" value="opportunistic"/>
        <param key="device.battery.minCharge" value="10000"/>
    </vehicle>
    <vehicle id="veh_90" type="nissan_leaf" depart="450.0" from="herald_square" to="times_square">
        <param key="device.battery.chargingStrategy" value="opportunistic"/>
        <param key="device.battery.minCharge" value="10000"/>
    </vehicle>
    <vehicle id="veh_91" type="tesla_model3" depart="455.0" from="rockefeller" to="times_square">
        <param key="device.battery.chargingStrategy" value="opportunistic"/>
        <param key="device.battery.minCharge" value="10000"/>
    </vehicle>
    <vehicle id="veh_92" type="mta_bus" depart="460.0" from="penn_station" to="grand_central"/>
    <vehicle id="veh_93" type="nissan_leaf" depart="465.0" from="grand_central" to="madison_square">
        <param key="device.battery.chargingStrategy" value="opportunistic"/>
        <param key="device.battery.minCharge" value="10000"/>
    </vehicle>
    <vehicle id="veh_94" type="tesla_modely" depart="470.0" from="grand_central" to="penn_station">
        <param key="device.battery.chargingStrategy" value="opportunistic"/>
        <param key="device.battery.minCharge" value="10000"/>
    </vehicle>
    <vehicle id="veh_95" type="tesla_model3" depart="475.0" from="herald_square" to="madison_square">
        <param key="device.battery.chargingStrategy" value="opportunistic"/>
        <param key="device.battery.minCharge" value="10000"/>
    </vehicle>
    <vehicle id="veh_96" type="tesla_model3" depart="480.0" from="times_square" to="columbus_circle">
        <param key="device.battery.chargingStrategy" value="opportunistic"/>
        <param key="device.battery.minCharge" value="10000"/>
    </vehicle>
    <vehicle id="veh_97" type="yellow_cab" depart="485.0" from="herald_square" to="columbus_circle"/>
    <vehicle id="veh_98" type="yellow_cab" depart="490.0" from="penn_station" to="columbus_circle"/>
    <vehicle id="veh_99" type="tesla_model3" depart="495.0" from="penn_station" to="grand_central">
        <param key="device.battery.chargingStrategy" value="opportunistic"/>
        <param key="device.battery.minCharge" value="10000"/>
    </vehicle>
    <vehicle id="veh_100" type="uber_black" depart="500.0" from="penn_station" to="rockefeller"/>
    <vehicle id="veh_101" type="tesla_model3" depart="505.0" from="bryant_park" to="columbus_circle">
        <param key="device.battery.chargingStrategy" value="opportunistic"/>
        <param key="device.battery.minCharge" value="10000"/>
    </vehicle>
    <vehicle id="veh_102" type="tesla_model3" depart="510.0" from="rockefeller" to="bryant_park">
        <param key="device.battery.chargingStrategy" value="opportunistic"/>
        <param key="device.battery.minCharge" value="10000"/>
    </vehicle>
    <vehicle id="veh_103" type="yellow_cab" depart="515.0" from="grand_central" to="herald_square"/>
    <vehicle id="veh_104" type="tesla_model3" depart="520.0" from="grand_central" to="herald_square">
        <param key="device.battery.chargingStrategy" value="opportunistic"/>
        <param key="device.battery.minCharge" value="10000"/>
    </vehicle>
    <vehicle id="veh_105" type="tesla_modely" depart="525.0" from="madison_square" to="penn_station">
        <param key="device.battery.chargingStrategy" value="opportunistic"/>
        <param key="device.battery.minCharge" value="10000"/>
    </vehicle>
    <vehicle id="veh_106" type="nissan_leaf" depart="530.0" from="herald_square" to="grand_central">
        <param key="device.battery.chargingStrategy" value="opportunistic"/>
        <param key="device.battery.minCharge" value="10000"/>
    </vehicle>
    <vehicle id="veh_107" type="nissan_leaf" depart="535.0" from="penn_station" to="bryant_park">
        <param key="device.battery.chargingStrategy" value="opportunistic"/>
        <param key="device.battery.minCharge" value="10000"/>
    </vehicle>
    <vehicle id="veh_108" type="yellow_cab" depart="540.0" from="madison_square" to="bryant_park"/>
    <vehicle id="veh_109" type="yellow_cab" depart="545.0" from="bryant_park" to="columbus_circle"/>
    <vehicle id="veh_110" type="yellow_cab" depart="550.0" from="penn_station" to="times_square"/>
    <vehicle id="veh_111" type="yellow_cab" depart="555.0" from="rockefeller" to="bryant_park"/>
    <vehicle id="veh_112" type="tesla_model3" depart="560.0" from="times_square" to="bryant_park">
        <param key="device.battery.chargingStrategy" value="opportunistic"/>
        <param key="device.battery.minCharge" value="10000"/>
    </vehicle>
    <vehicle id="veh_113" type="tesla_modely" depart="565.0" from="madison_square" to="grand_central">
        <param key="device.battery.chargingStrategy" value="opportunistic"/>
        <param key="device.battery.minCharge" value="10000"/>
    </vehicle>
    <vehicle id="veh_114" type="yellow_cab" depart="570.0" from="times_square" to="columbus_circle"/>
    <vehicle id="veh_115" type="rivian_truck" depart="575.0" from="grand_central" to="bryant_park">
        <param key="device.battery.chargingStrategy" value="opportunistic"/>
        <param key="device.battery.minCharge" value="10000"/>
    </vehicle>
    <vehicle id="veh_116" type="tesla_model3" depart="580.0" from="herald_square" to="bryant_park">
        <param key="device.battery.chargingStrategy" value="opportunistic"/>
        <param key="device.battery.minCharge" value="10000"/>
    </vehicle>
    <vehicle id="veh_117" type="tesla_model3" depart="585.0" from="rockefeller" to="bryant_park">
        <param key="device.battery.chargingStrategy" value="opportunistic"/>
        <param key="device.battery.minCharge" value="10000"/>
    </vehicle>
    <vehicle id="veh_118" type="uber_black" depart="590.0" from="penn_station" to="grand_central"/>
    <vehicle id="veh_119" type="tesla_model3" depart="595.0" from="columbus_circle" to="madison_square">
        <param key="device.battery.chargingStrategy" value="opportunistic"/>
        <param key="device.battery.minCharge" value="10000"/>
    </vehicle>
    <vehicle id="veh_120" type="nissan_leaf" depart="600.0" from="times_square" to="penn_station">
        <param key="device.battery.chargingStrategy" value="opportunistic"/>
        <param key="device.battery.minCharge" value="10000"/>
    </vehicle>
    <vehicle id="veh_121" type="ups_truck" depart="605.0" from="columbus_circle" to="bryant_park"/>
    <vehicle id="veh_122" type="nissan_leaf" depart="610.0" from="grand_central" to="rockefeller">
        <param key="device.battery.chargingStrategy" value="opportunistic"/>
        <param key="device.battery.minCharge" value="10000"/>
    </vehicle>
    <vehicle id="veh_123" type="rivian_truck" depart="615.0" from="herald_square" to="grand_central">
        <param key="device.battery.chargingStrategy" value="opportunistic"/>
        <param key="device.battery.minCharge" value="10000"/>
    </vehicle>
    <vehicle id="veh_124" type="uber_black" depart="620.0" from="penn_station" to="grand_central"/>
    <vehicle id="veh_125" type="uber_black" depart="625.0" from="columbus_circle" to="herald_square"/>
    <vehicle id="veh_126" type="yellow_cab" depart="630.0" from="penn_station" to="times_square"/>
    <vehicle id="veh_127" type="tesla_model3" depart="635.0" from="rockefeller" to="penn_station">
        <param key="device.battery.chargingStrategy" value="opportunistic"/>
        <param key="device.battery.minCharge" value="10000"/>
    </vehicle>
    <vehicle id="veh_128" type="rivian_truck" depart="640.0" from="herald_square" to="rockefeller">
        <param key="device.battery.chargingStrategy" value="opportunistic"/>
        <param key="device.battery.minCharge" value="10000"/>
    </vehicle>
    <vehicle id="veh_129" type="tesla_model3" depart="645.0" from="bryant_park" to="grand_central">
        <param key="device.battery.chargingStrategy" value="opportunistic"/>
        <param key="device.battery.minCharge" value="10000"/>
    </vehicle>
    <vehicle id="veh_130" type="yellow_cab" depart="650.0" from="columbus_circle" to="madison_square"/>
    <vehicle id="veh_131" type="tesla_model3" depart="655.0" from="columbus_circle" to="penn_station">
        <param key="device.battery.chargingStrategy" value="opportunistic"/>
        <param key="device.battery.minCharge" value="10000"/>
    </vehicle>
    <vehicle id="veh_132" type="mta_bus" depart="660.0" from="penn_station" to="grand_central"/>
    <vehicle id="veh_133" type="yellow_cab" depart="665.0" from="columbus_circle" to="madison_square"/>
    <vehicle id="veh_134" type="yellow_cab" depart="670.0" from="times_square" to="bryant_park"/>
    <vehicle id="veh_135" type="tesla_model3" depart="675.0" from="penn_station" to="rockefeller">
        <param key="device.battery.chargingStrategy" value="opportunistic"/>
        <param key="device.battery.minCharge" value="10000"/>
    </vehicle>
    <vehicle id="veh_136" type="tesla_model3" depart="680.0" from="columbus_circle" to="rockefeller">
        <param key="device.battery.chargingStrategy" value="opportunistic"/>
        <param key="device.battery.minCharge" value="10000"/>
    </vehicle>
    <vehicle id="veh_137" type="rivian_truck" depart="685.0" from="times_square" to="columbus_circle">
        <param key="device.battery.chargingStrategy" value="opportunistic"/>
        <param key="device.battery.minCharge" value="10000"/>
    </vehicle>
    <vehicle id="veh_138" type="yellow_cab" depart="690.0" from="rockefeller" to="columbus_circle"/>
    <vehicle id="veh_139" type="yellow_cab" depart="695.0" from="bryant_park" to="penn_station"/>
    <vehicle id="veh_140" type="tesla_model3" depart="700.0" from="columbus_circle" to="times_square">
        <param key="device.battery.chargingStrategy" value="opportunistic"/>
        <param key="device.battery.minCharge" value="10000"/>
    </vehicle>
    <vehicle id="veh_141" type="nissan_leaf" depart="705.0" from="bryant_park" to="times_square">
        <param key="device.battery.chargingStrategy" value="opportunistic"/>
        <param key="device.battery.minCharge" value="10000"/>
    </vehicle>
    <vehicle id="veh_142" type="nissan_leaf" depart="710.0" from="columbus_circle" to="herald_square">
        <param key="device.battery.chargingStrategy" value="opportunistic"/>
        <param key="device.battery.minCharge" value="10000"/>
    </vehicle>
    <vehicle id="veh_143" type="yellow_cab" depart="715.0" from="times_square" to="bryant_park"/>
    <vehicle id="veh_144" type="mta_bus" depart="720.0" from="penn_station" to="grand_central"/>
    <vehicle id="veh_145" type="tesla_model3" depart="725.0" from="penn_station" to="columbus_circle">
        <param key="device.battery.chargingStrategy" value="opportunistic"/>
        <param key="device.battery.minCharge" value="10000"/>
    </vehicle>
    <vehicle id="veh_146" type="tesla_model3" depart="730.0" from="madison_square" to="herald_square">
        <param key="device.battery.chargingStrategy" value="opportunistic"/>
        <param key="device.battery.minCharge" value="10000"/>
    </vehicle>
    <vehicle id="veh_147" type="uber_black" depart="735.0" from="grand_central" to="bryant_park"/>
    <vehicle id="veh_148" type="rivian_truck" depart="740.0" from="herald_square" to="rockefeller">
        <param key="device.battery.chargingStrategy" value="opportunistic"/>
        <param key="device.battery.minCharge" value="10000"/>
    </vehicle>
    <vehicle id="veh_149" type="tesla_model3" depart="745.0" from="columbus_circle" to="bryant_park">
        <param key="device.battery.chargingStrategy" value="opportunistic"/>
        <param key="device.battery.minCharge" value="10000"/>
    </vehicle>
    <vehicle id="veh_150" type="tesla_model3" depart="750.0" from="herald_square" to="times_square">
        <param key="device.battery.chargingStrategy" value="opportunistic"/>
        <param key="device.battery.minCharge" value="10000"/>
    </vehicle>
    <vehicle id="veh_151" type="yellow_cab" depart="755.0" from="herald_square" to="madison_square"/>
    <vehicle id="veh_152" type="yellow_cab" depart="760.0" from="rockefeller" to="columbus_circle"/>
    <vehicle id="veh_153" type="nissan_leaf" depart="765.0" from="rockefeller" to="grand_central">
        <param key="device.battery.chargingStrategy" value="opportunistic"/>
        <param key="device.battery.minCharge" value="10000"/>
    </vehicle>
    <vehicle id="veh_154" type="uber_black" depart="770.0" from="columbus_circle" to="bryant_park"/>
    <vehicle id="veh_155" type="ups_truck" depart="775.0" from="times_square" to="grand_central"/>
    <vehicle id="veh_156" type="yellow_cab" depart="780.0" from="herald_square" to="rockefeller"/>
    <vehicle id="veh_157" type="tesla_model3" depart="785.0" from="grand_central" to="madison_square">
        <param key="device.battery.chargingStrategy" value="opportunistic"/>
        <param key="device.battery.minCharge" value="10000"/>
    </vehicle>
    <vehicle id="veh_158" type="yellow_cab" depart="790.0" from="rockefeller" to="bryant_park"/>
    <vehicle id="veh_159" type="nissan_leaf" depart="795.0" from="bryant_park" to="rockefeller">
        <param key="device.battery.chargingStrategy" value="opportunistic"/>
        <param key="device.battery.minCharge" value="10000"/>
    </vehicle>
    <vehicle id="veh_160" type="nissan_leaf" depart="800.0" from="rockefeller" to="times_square">
        <param key="device.battery.chargingStrategy" value="opportunistic"/>
        <param key="device.battery.minCharge" value="10000"/>
    </vehicle>
    <vehicle id="veh_161" type="uber_black" depart="805.0" from="penn_station" to="grand_central"/>
    <vehicle id="veh_162" type="yellow_cab" depart="810.0" from="grand_central" to="bryant_park"/>
    <vehicle id="veh_163" type="tesla_model3" depart="815.0" from="columbus_circle" to="times_square">
        <param key="device.battery.chargingStrategy" value="opportunistic"/>
        <param key="device.battery.minCharge" value="10000"/>
    </vehicle>
    <vehicle id="veh_164" type="tesla_model3" depart="820.0" from="grand_central" to="penn_station">
        <param key="device.battery.chargingStrategy" value="opportunistic"/>
        <param key="device.battery.minCharge" value="10000"/>
    </vehicle>
    <vehicle id="veh_165" type="tesla_model3" depart="825.0" from="penn_station" to="columbus_circle">
        <param key="device.battery.chargingStrategy" value="opportunistic"/>
        <param key="device.battery.minCharge" value="10000"/>
    </vehicle>
    <vehicle id="veh_166" type="mta_bus" depart="830.0" from="penn_station" to="grand_central"/>
    <vehicle id="veh_167" type="uber_black" depart="835.0" from="herald_square" to="grand_central"/>
    <vehicle id="veh_168" type="yellow_cab" depart="840.0" from="rockefeller" to="penn_station"/>
    <vehicle id="veh_169" type="tesla_model3" depart="845.0" from="columbus_circle" to="bryant_park">
        <param key="device.battery.chargingStrategy" value="opportunistic"/>
        <param key="device.battery.minCharge" value="10000"/>
    </vehicle>
    <vehicle id="veh_170" type="yellow_cab" depart="850.0" from="madison_square" to="bryant_park"/>
    <vehicle id="veh_171" type="yellow_cab" depart="855.0" from="times_square" to="rockefeller"/>
    <vehicle id="veh_172" type="tesla_model3" depart="860.0" from="madison_square" to="times_square">
        <param key="device.battery.chargingStrategy" value="opportunistic"/>